Version 4.1
SHEET 1 1684 932
WIRE -736 -448 -896 -448
WIRE 240 -448 48 -448
WIRE 512 -416 384 -416
WIRE -1008 -400 -1120 -400
WIRE 240 -400 240 -448
WIRE 512 -400 512 -416
WIRE 512 -400 480 -400
WIRE 576 -400 512 -400
WIRE -896 -368 -896 -448
WIRE 48 -368 48 -448
WIRE -736 -352 -736 -448
WIRE 544 -336 480 -336
WIRE 576 -336 544 -336
WIRE -1120 -320 -1120 -400
WIRE -1120 -320 -1152 -320
WIRE -1072 -320 -1120 -320
WIRE 384 -320 384 -416
WIRE 384 -320 240 -320
WIRE 544 -288 544 -336
WIRE -1120 -256 -1152 -256
WIRE -1072 -256 -1120 -256
WIRE -896 -256 -896 -288
WIRE -1120 -224 -1120 -256
WIRE -1008 -192 -1008 -400
WIRE -896 -192 -896 -256
WIRE -896 -192 -1008 -192
WIRE -896 -160 -896 -192
WIRE -896 -160 -960 -160
WIRE -848 -160 -896 -160
WIRE -288 -160 -320 -160
WIRE 80 -160 -224 -160
WIRE -960 -96 -960 -160
WIRE -848 -96 -848 -160
WIRE -960 -16 -1184 -16
WIRE -752 -16 -784 -16
WIRE -560 -16 -672 -16
WIRE -80 16 -160 16
WIRE 80 16 80 -160
WIRE 80 16 0 16
WIRE -960 32 -960 -16
WIRE -784 32 -784 -16
WIRE -784 32 -960 32
WIRE 352 48 272 48
WIRE 528 48 432 48
WIRE 688 48 528 48
WIRE -672 64 -672 -16
WIRE -560 80 -560 -16
WIRE -432 80 -560 80
WIRE -320 80 -320 -160
WIRE -320 80 -368 80
WIRE -288 80 -320 80
WIRE -160 80 -160 16
WIRE -160 80 -224 80
WIRE -1184 96 -1184 -16
WIRE -848 96 -848 -16
WIRE -848 96 -896 96
WIRE -320 144 -320 80
WIRE -160 160 -160 80
WIRE -112 160 -160 160
WIRE 80 160 80 16
WIRE 80 160 48 160
WIRE 272 160 272 48
WIRE 272 160 80 160
WIRE 64 176 32 176
WIRE 528 176 528 48
WIRE 720 176 672 176
WIRE 1024 176 848 176
WIRE 1168 176 1104 176
WIRE 1296 176 1168 176
WIRE -896 192 -896 96
WIRE -896 192 -912 192
WIRE -864 192 -896 192
WIRE -672 192 -672 128
WIRE -672 192 -784 192
WIRE -176 192 -208 192
WIRE -112 192 -176 192
WIRE -1184 208 -1184 176
WIRE -912 208 -912 192
WIRE -912 208 -1184 208
WIRE 48 208 48 160
WIRE 48 208 32 208
WIRE 688 208 688 48
WIRE 720 208 688 208
WIRE 992 208 848 208
WIRE 1296 208 1296 176
WIRE 992 224 992 208
WIRE 48 240 32 240
WIRE 960 240 848 240
WIRE 64 256 64 176
WIRE 272 256 64 256
WIRE -672 272 -672 192
WIRE -432 272 -672 272
WIRE -320 272 -320 224
WIRE -320 272 -368 272
WIRE -288 272 -320 272
WIRE -208 272 -208 192
WIRE -208 272 -224 272
WIRE 48 272 48 240
WIRE 48 272 32 272
WIRE 880 272 848 272
WIRE 32 288 32 272
WIRE 960 288 960 240
WIRE -16 320 -48 320
WIRE -48 336 -48 320
WIRE -16 352 -16 320
WIRE 32 352 -16 352
WIRE -176 368 -176 192
WIRE -160 368 -176 368
WIRE 64 368 64 256
WIRE 64 368 -80 368
WIRE 272 400 272 256
WIRE 336 400 272 400
WIRE 528 400 528 240
WIRE 528 400 416 400
WIRE 672 400 672 176
WIRE 672 400 528 400
WIRE 880 400 880 272
WIRE 960 400 960 368
WIRE 960 400 880 400
WIRE -320 480 -320 272
WIRE -288 480 -320 480
WIRE 64 480 64 368
WIRE 64 480 -224 480
FLAG 1296 288 0
FLAG -736 -352 0
FLAG -48 336 0
FLAG 1168 240 0
FLAG 992 224 0
FLAG -896 -256 V_cc
FLAG -112 224 V_cc
FLAG 48 -368 0
FLAG 240 -320 V_ee
FLAG 32 144 V_ee
FLAG 720 272 V_ee
FLAG 720 240 V_cc
FLAG 544 -288 0
FLAG -1120 -224 0
SYMBOL res -864 -112 R0
SYMATTR InstName R1
SYMATTR Value 49.9
SYMBOL res -976 -112 R0
SYMATTR InstName R2
SYMATTR Value 49.9
SYMBOL res -656 -32 R90
WINDOW 0 0 56 VBottom 2
WINDOW 3 32 56 VTop 2
SYMATTR InstName R3
SYMATTR Value 1k
SYMBOL res 944 272 R0
SYMATTR InstName R19
SYMATTR Value 1.5k
SYMBOL res 1120 160 R90
WINDOW 0 0 56 VBottom 2
WINDOW 3 32 56 VTop 2
SYMATTR InstName R20
SYMATTR Value 27
SYMBOL res 1312 304 R180
WINDOW 0 36 76 Left 2
WINDOW 3 36 40 Left 2
SYMATTR InstName R21
SYMATTR Value 120k
SYMBOL voltage -1184 80 R0
WINDOW 3 24 152 Left 2
WINDOW 123 24 124 Left 2
WINDOW 39 0 0 Left 0
SYMATTR Value 0
SYMATTR Value2 AC 1
SYMATTR InstName V1
SYMBOL cap -656 128 R180
WINDOW 0 24 56 Left 2
WINDOW 3 24 8 Left 2
SYMATTR InstName C1
SYMATTR Value 0.1n
SYMBOL voltage -896 -272 R180
WINDOW 0 24 96 Left 2
WINDOW 3 24 16 Left 2
WINDOW 123 0 0 Left 0
WINDOW 39 0 0 Left 0
SYMATTR InstName V2
SYMATTR Value 5
SYMBOL cap -224 464 R90
WINDOW 0 0 32 VBottom 2
WINDOW 3 32 32 VTop 2
SYMATTR InstName 2n
SYMATTR Value 1n
SYMBOL cap 16 288 R0
SYMATTR InstName C7
SYMATTR Value 1”
SYMBOL cap -224 -176 R90
WINDOW 0 0 32 VBottom 2
WINDOW 3 32 32 VTop 2
SYMATTR InstName C9
SYMATTR Value 1n
SYMBOL cap 1152 176 R0
SYMATTR InstName C13
SYMATTR Value 10n
SYMBOL voltage 240 -416 R0
WINDOW 123 0 0 Left 0
WINDOW 39 0 0 Left 0
SYMATTR InstName V3
SYMATTR Value 5
SYMBOL cap -1136 -256 R180
WINDOW 0 24 56 Left 2
WINDOW 3 24 8 Left 2
SYMATTR InstName C14
SYMATTR Value 1”
SYMBOL cap -1056 -256 R180
WINDOW 0 24 56 Left 2
WINDOW 3 24 8 Left 2
SYMATTR InstName C15
SYMATTR Value 100n
SYMBOL cap 496 -336 R180
WINDOW 0 24 56 Left 2
WINDOW 3 24 8 Left 2
SYMATTR InstName C16
SYMATTR Value 1”
SYMBOL cap 592 -336 R180
WINDOW 0 24 56 Left 2
WINDOW 3 24 8 Left 2
SYMATTR InstName C17
SYMATTR Value 100n
SYMBOL INA849 784 224 R0
SYMATTR InstName U4
SYMBOL THS4561 -48 192 R0
SYMATTR InstName U5
SYMBOL res -768 176 R90
WINDOW 0 0 56 VBottom 2
WINDOW 3 32 56 VTop 2
SYMATTR InstName R10
SYMATTR Value 1k
SYMBOL res 16 0 R90
WINDOW 0 0 56 VBottom 2
WINDOW 3 32 56 VTop 2
SYMATTR InstName R4
SYMATTR Value 4.99k
SYMBOL res -64 352 R90
WINDOW 0 0 56 VBottom 2
WINDOW 3 32 56 VTop 2
SYMATTR InstName R5
SYMATTR Value 4.99k
SYMBOL cap -224 256 R90
WINDOW 0 0 32 VBottom 2
WINDOW 3 32 32 VTop 2
SYMATTR InstName C2
SYMATTR Value 1n
SYMBOL cap -224 64 R90
WINDOW 0 0 32 VBottom 2
WINDOW 3 32 32 VTop 2
SYMATTR InstName C4
SYMATTR Value 1n
SYMBOL cap -368 64 R90
WINDOW 0 0 32 VBottom 2
WINDOW 3 32 32 VTop 2
SYMATTR InstName C5
SYMATTR Value 2.4n
SYMBOL cap -368 256 R90
WINDOW 0 0 32 VBottom 2
WINDOW 3 32 32 VTop 2
SYMATTR InstName C8
SYMATTR Value 2.4n
SYMBOL res -336 128 R0
SYMATTR InstName R6
SYMATTR Value 422
SYMBOL res 432 384 R90
WINDOW 0 0 56 VBottom 2
WINDOW 3 32 56 VTop 2
SYMATTR InstName R7
SYMATTR Value 49.9
SYMBOL res 448 32 R90
WINDOW 0 0 56 VBottom 2
WINDOW 3 32 56 VTop 2
SYMATTR InstName R8
SYMATTR Value 49.9
SYMBOL cap 512 176 R0
SYMATTR InstName C3
SYMATTR Value 10n
TEXT -1416 -104 Left 2 !.ac dec 300 10 10000k
