Version 4.1
SHEET 1 1684 932
WIRE -736 -448 -896 -448
WIRE 240 -448 48 -448
WIRE 512 -416 384 -416
WIRE -1008 -400 -1120 -400
WIRE 240 -400 240 -448
WIRE 512 -400 512 -416
WIRE 512 -400 480 -400
WIRE 576 -400 512 -400
WIRE -896 -368 -896 -448
WIRE 48 -368 48 -448
WIRE -736 -352 -736 -448
WIRE 544 -336 480 -336
WIRE 576 -336 544 -336
WIRE -1120 -320 -1120 -400
WIRE -1120 -320 -1152 -320
WIRE -1072 -320 -1120 -320
WIRE 384 -320 384 -416
WIRE 384 -320 240 -320
WIRE 544 -288 544 -336
WIRE -1120 -256 -1152 -256
WIRE -1072 -256 -1120 -256
WIRE -896 -256 -896 -288
WIRE -1120 -224 -1120 -256
WIRE -1008 -192 -1008 -400
WIRE -896 -192 -896 -256
WIRE -896 -192 -1008 -192
WIRE -896 -160 -896 -192
WIRE -896 -160 -960 -160
WIRE -848 -160 -896 -160
WIRE -304 -160 -320 -160
WIRE 80 -160 -224 -160
WIRE 288 -112 224 -112
WIRE 656 -112 368 -112
WIRE -960 -96 -960 -160
WIRE -848 -96 -848 -160
WIRE -960 -16 -1184 -16
WIRE -672 -16 -720 -16
WIRE -560 -16 -672 -16
WIRE -64 16 -160 16
WIRE 80 16 80 -160
WIRE 80 16 0 16
WIRE 480 16 384 16
WIRE 656 16 656 -112
WIRE 656 16 544 16
WIRE 736 16 656 16
WIRE 880 16 800 16
WIRE 1056 16 880 16
WIRE -960 32 -960 -16
WIRE -784 32 -784 -16
WIRE -784 32 -960 32
WIRE -560 80 -560 -16
WIRE -432 80 -560 80
WIRE -320 80 -320 -160
WIRE -320 80 -352 80
WIRE -288 80 -320 80
WIRE -160 80 -160 16
WIRE -160 80 -208 80
WIRE -1184 96 -1184 -16
WIRE -848 96 -848 -16
WIRE -848 96 -896 96
WIRE -672 112 -672 -16
WIRE -320 144 -320 80
WIRE 224 144 224 -112
WIRE 224 144 176 144
WIRE 288 144 224 144
WIRE 384 144 384 16
WIRE 384 144 368 144
WIRE 400 144 384 144
WIRE 1088 144 1040 144
WIRE 1392 144 1216 144
WIRE 1536 144 1472 144
WIRE 1664 144 1536 144
WIRE -160 160 -160 80
WIRE -112 160 -160 160
WIRE 80 160 80 16
WIRE 80 160 48 160
WIRE 96 160 96 144
WIRE 96 160 80 160
WIRE 400 160 400 144
WIRE 448 160 400 160
WIRE 64 176 32 176
WIRE 224 176 224 144
WIRE 624 176 592 176
WIRE 1056 176 1056 16
WIRE 1088 176 1056 176
WIRE 1360 176 1216 176
WIRE 1664 176 1664 144
WIRE -896 192 -896 96
WIRE -896 192 -912 192
WIRE -864 192 -896 192
WIRE -672 192 -800 192
WIRE -176 192 -208 192
WIRE -112 192 -176 192
WIRE 448 192 368 192
WIRE 880 192 880 96
WIRE 880 192 864 192
WIRE 1360 192 1360 176
WIRE -1184 208 -1184 176
WIRE -912 208 -912 192
WIRE -912 208 -1184 208
WIRE 48 208 48 160
WIRE 48 208 32 208
WIRE 656 208 656 16
WIRE 656 208 592 208
WIRE 1328 208 1216 208
WIRE 48 240 32 240
WIRE 608 240 592 240
WIRE 960 240 960 192
WIRE 1248 240 1216 240
WIRE 64 256 64 176
WIRE 96 256 64 256
WIRE 224 256 224 240
WIRE 224 256 176 256
WIRE 288 256 224 256
WIRE 368 256 368 192
WIRE 1328 256 1328 208
WIRE -672 272 -672 192
WIRE -432 272 -672 272
WIRE -320 272 -320 208
WIRE -320 272 -352 272
WIRE -288 272 -320 272
WIRE -208 272 -208 192
WIRE 48 272 48 240
WIRE 48 272 32 272
WIRE 32 288 32 272
WIRE 864 288 864 192
WIRE 608 304 576 304
WIRE -16 320 -48 320
WIRE 576 320 576 304
WIRE -48 336 -48 320
WIRE -16 352 -16 320
WIRE 32 352 -16 352
WIRE -176 368 -176 192
WIRE -160 368 -176 368
WIRE 64 368 64 256
WIRE 64 368 -96 368
WIRE 368 368 368 256
WIRE 384 368 368 368
WIRE 624 368 624 176
WIRE 624 368 448 368
WIRE 720 368 624 368
WIRE 864 368 784 368
WIRE 1040 368 1040 144
WIRE 1040 368 864 368
WIRE 1248 368 1248 240
WIRE 1328 368 1328 336
WIRE 1328 368 1248 368
WIRE -320 480 -320 272
WIRE -304 480 -320 480
WIRE 64 480 64 368
WIRE 64 480 -224 480
WIRE 224 512 224 256
WIRE 272 512 224 512
WIRE 624 512 624 368
WIRE 624 512 352 512
FLAG 1664 256 0
FLAG -736 -352 0
FLAG -48 336 0
FLAG 576 320 0
FLAG 960 240 0
FLAG 1536 208 0
FLAG 1360 192 0
FLAG -896 -256 V_cc
FLAG -112 224 V_cc
FLAG 448 224 V_cc
FLAG 48 -368 0
FLAG 240 -320 V_ee
FLAG 32 144 V_ee
FLAG 592 144 V_ee
FLAG 1088 240 V_ee
FLAG 1088 208 V_cc
FLAG 544 -288 0
FLAG -1120 -224 0
SYMBOL res -864 -112 R0
SYMATTR InstName R1
SYMATTR Value 49.9
SYMBOL res -976 -112 R0
SYMATTR InstName R2
SYMATTR Value 49.9
SYMBOL res -688 96 R0
SYMATTR InstName R3
SYMATTR Value 360
SYMBOL res -336 64 R90
WINDOW 0 0 56 VBottom 2
WINDOW 3 32 56 VTop 2
SYMATTR InstName R4
SYMATTR Value 3.6k
SYMBOL res -336 256 R90
WINDOW 0 0 56 VBottom 2
WINDOW 3 32 56 VTop 2
SYMATTR InstName R5
SYMATTR Value 3.6k
SYMBOL res -192 64 R90
WINDOW 0 0 56 VBottom 2
WINDOW 3 32 56 VTop 2
SYMATTR InstName R6
SYMATTR Value 2.4k
SYMBOL res -192 256 R90
WINDOW 0 0 56 VBottom 2
WINDOW 3 32 56 VTop 2
SYMATTR InstName R7
SYMATTR Value 2.4k
SYMBOL res -208 -176 R90
WINDOW 0 0 56 VBottom 2
WINDOW 3 32 56 VTop 2
SYMATTR InstName R8
SYMATTR Value 8.2k
SYMBOL res -208 464 R90
WINDOW 0 0 56 VBottom 2
WINDOW 3 32 56 VTop 2
SYMATTR InstName R9
SYMATTR Value 8.2k
SYMBOL res 192 128 R90
WINDOW 0 0 56 VBottom 2
WINDOW 3 32 56 VTop 2
SYMATTR InstName R10
SYMATTR Value 680
SYMBOL res 192 240 R90
WINDOW 0 0 56 VBottom 2
WINDOW 3 32 56 VTop 2
SYMATTR InstName R11
SYMATTR Value 680
SYMBOL res 384 128 R90
WINDOW 0 0 56 VBottom 2
WINDOW 3 32 56 VTop 2
SYMATTR InstName R12
SYMATTR Value 470
SYMBOL res 384 240 R90
WINDOW 0 0 56 VBottom 2
WINDOW 3 32 56 VTop 2
SYMATTR InstName R13
SYMATTR Value 470
SYMBOL res 384 -128 R90
WINDOW 0 0 56 VBottom 2
WINDOW 3 32 56 VTop 2
SYMATTR InstName R_
SYMATTR Value 1.6k
SYMBOL res 368 496 R90
WINDOW 0 0 56 VBottom 2
WINDOW 3 32 56 VTop 2
SYMATTR InstName 1.6k
SYMATTR Value 1.6k
SYMBOL res 1312 240 R0
SYMATTR InstName R19
SYMATTR Value 1.5k
SYMBOL res 1488 128 R90
WINDOW 0 0 56 VBottom 2
WINDOW 3 32 56 VTop 2
SYMATTR InstName R20
SYMATTR Value 27
SYMBOL res 1680 272 R180
WINDOW 0 36 76 Left 2
WINDOW 3 36 40 Left 2
SYMATTR InstName R21
SYMATTR Value 120k
SYMBOL voltage -1184 80 R0
WINDOW 3 24 152 Left 2
WINDOW 123 24 124 Left 2
WINDOW 39 0 0 Left 0
SYMATTR Value 0
SYMATTR Value2 AC 1
SYMATTR InstName V1
SYMBOL cap -720 -32 R90
WINDOW 0 0 32 VBottom 2
WINDOW 3 32 32 VTop 2
SYMATTR InstName C1
SYMATTR Value 10n
SYMBOL cap -800 176 R90
WINDOW 0 0 32 VBottom 2
WINDOW 3 32 32 VTop 2
SYMATTR InstName C2
SYMATTR Value 10n
SYMBOL cap -304 208 R180
WINDOW 0 24 56 Left 2
WINDOW 3 24 8 Left 2
SYMATTR InstName C3
SYMATTR Value 270p
SYMBOL voltage -896 -272 R180
WINDOW 0 24 96 Left 2
WINDOW 3 24 16 Left 2
WINDOW 123 0 0 Left 0
WINDOW 39 0 0 Left 0
SYMATTR InstName V2
SYMATTR Value 5
SYMBOL cap -96 352 R90
WINDOW 0 0 32 VBottom 2
WINDOW 3 32 32 VTop 2
SYMATTR InstName C6
SYMATTR Value 0.1n
SYMBOL cap 16 288 R0
SYMATTR InstName C7
SYMATTR Value 1Á
SYMBOL cap 208 176 R0
SYMATTR InstName C8
SYMATTR Value 3n
SYMBOL cap 0 0 R90
WINDOW 0 0 32 VBottom 2
WINDOW 3 32 32 VTop 2
SYMATTR InstName C9
SYMATTR Value 0.1n
SYMBOL cap 448 352 R90
WINDOW 0 0 32 VBottom 2
WINDOW 3 32 32 VTop 2
SYMATTR InstName C4
SYMATTR Value 0.1n
SYMBOL cap 592 240 R0
SYMATTR InstName C5
SYMATTR Value 1Á
SYMBOL cap 544 0 R90
WINDOW 0 0 32 VBottom 2
WINDOW 3 32 32 VTop 2
SYMATTR InstName C10
SYMATTR Value 0.1n
SYMBOL cap 800 0 R90
WINDOW 0 0 32 VBottom 2
WINDOW 3 32 32 VTop 2
SYMATTR InstName C11
SYMATTR Value 3.3n
SYMBOL cap 784 352 R90
WINDOW 0 0 32 VBottom 2
WINDOW 3 32 32 VTop 2
SYMATTR InstName C12
SYMATTR Value 3.3n
SYMBOL res 864 0 R0
SYMATTR InstName R16
SYMATTR Value 49.9
SYMBOL res 848 272 R0
SYMATTR InstName R17
SYMATTR Value 49.9
SYMBOL res 976 176 R90
WINDOW 0 0 56 VBottom 2
WINDOW 3 32 56 VTop 2
SYMATTR InstName R18
SYMATTR Value 49.9
SYMBOL cap 1520 144 R0
SYMATTR InstName C13
SYMATTR Value 10n
SYMBOL voltage 240 -416 R0
WINDOW 123 0 0 Left 0
WINDOW 39 0 0 Left 0
SYMATTR InstName V3
SYMATTR Value 5
SYMBOL cap -1136 -256 R180
WINDOW 0 24 56 Left 2
WINDOW 3 24 8 Left 2
SYMATTR InstName C14
SYMATTR Value 1Á
SYMBOL cap -1056 -256 R180
WINDOW 0 24 56 Left 2
WINDOW 3 24 8 Left 2
SYMATTR InstName C15
SYMATTR Value 100n
SYMBOL cap 496 -336 R180
WINDOW 0 24 56 Left 2
WINDOW 3 24 8 Left 2
SYMATTR InstName C16
SYMATTR Value 1Á
SYMBOL cap 592 -336 R180
WINDOW 0 24 56 Left 2
WINDOW 3 24 8 Left 2
SYMATTR InstName C17
SYMATTR Value 100n
SYMBOL INA849 1152 192 R0
SYMATTR InstName U4
SYMBOL THS4561 -48 192 R0
SYMATTR InstName U5
SYMBOL THS4561 512 192 R0
SYMATTR InstName U6
TEXT -1416 -104 Left 2 !.ac dec 300 10 1000k
